Version 4
SHEET 1 2252 1752
WIRE -944 -1168 -1008 -1168
WIRE -1008 -1136 -1008 -1168
WIRE -624 -1104 -704 -1104
WIRE -704 -1056 -704 -1104
WIRE -944 -1024 -944 -1168
WIRE -624 -1024 -624 -1104
WIRE -992 -1008 -1136 -1008
WIRE -1136 -960 -1136 -1008
WIRE -1136 -800 -1136 -880
WIRE -944 -800 -944 -928
WIRE -832 -800 -944 -800
WIRE -624 -800 -624 -944
WIRE -624 -800 -752 -800
FLAG -1136 -800 0
FLAG -1008 -1136 0
FLAG -704 -1056 0
SYMBOL voltage -1136 -976 R0
SYMATTR InstName VGS
SYMATTR Value ""
SYMBOL voltage -624 -928 R180
WINDOW 3 24 -12 Left 2
WINDOW 123 0 0 Left 0
WINDOW 39 0 0 Left 0
SYMATTR Value -2v
SYMATTR InstName VDS
SYMBOL res -736 -816 R90
WINDOW 0 0 56 VBottom 2
WINDOW 3 32 56 VTop 2
SYMATTR InstName R1
SYMATTR Value 0
SYMBOL pmos -992 -928 M180
SYMATTR InstName M1
SYMATTR Value BUK6Y24-40P
SYMATTR Prefix X
TEXT 728 -1176 Left 2 !********************************************************************************************************\n*\n* Nexperia BUK6Y24-40P\n* Polarity P - Channel\n* Ratings 40V/19.0mOhm/39A\n* Revision N#: 2.0\n* Created on 2020-12-23 17:24:00\n* Please visit www.nexperia.com for latest revision release\n*\n********************************************************************************************************\n*\n* Model generated by Nexperia\n* Copyright(c) 2018\n* All rights reserved\n*\n* Contains proprietary information which is the property of Nexperia.\n*\n********************************************************************************************************\n \n.SUBCKT BUK6Y24-40P D G S\n \n* Package impedance\nLD D 5 30.00p\nRLD2 D 5 75.40m\nRLD1 5 4 6.000u\nLG G 1 1.509n\nRLG G 1 3.792\nLS S 8 800.0p\nRLS2 S 8 2.011\nRLS1 8 7 620.0u\n \n* Drain,gate and source resistances\nRD 3 4 15.81m TC= 2.493m,1.000n\nRG 1 20 11.00\nDon 2 20 D_DBD2\nRgoff 1 2 180\nRS 6 7 1.000u\n \n* Body Diode\nRBD 9 4 5.751m TC= 4.000m,23.00u\nDBD 9 7 D_DBD\nRDS 7 4 23.81G TC= -5.000m\n \n* Internal MOS\nM1 3 2 6 6 MINT\n \n* Gate leakage and gate capacitance\nRGS 2 6 228.3G\nCGS 2 6 1.150n\n \n* CGD\nC11 11 12 1E-12\nV11 11 0 0Vdc\nG11 2 3 VALUE {V(13,0)*I(V11)}\nE11 12 0 2 3 1\nE12 13 0 TABLE {V(12)}\n+ (-10.0,2019.0)\n+ (-3.21,2019.0)\n+ (0.01,449.9)\n+ (0.1,433.0)\n+ (0.2,411.4)\n+ (0.5,356.0)\n+ (1.0,292.9)\n+ (2.0,233.3)\n+ (3.0,202.9)\n+ (4.0,183.3)\n+ (5.0,169.0)\n+ (6.0,157.9)\n+ (8.0,141.6)\n+ (10.0,129.9)\n+ (12.0,121.0)\n+ (15.0,110.9)\n+ (20.0,99.48)\n+ (30.0,86.67)\n+ (40.0,79.95)\n \n.MODEL MINT PMOS Vto= -2.996 Kp= 57.03 Nfs= 1.024T Eta= 0.000\n+ Level= 3 Gamma= 0.000 Phi= 600.0m Is= 1.000E-24 UO= 600.0\n+ Js= 0.000 Pb= 800.0m Cj= 0.000 Cjsw= 0.000 Cgso= 0.000 Cgdo= 0.000 Cgbo= 0.000\n+ Tox= 100.0n Xj= 0.000\n+ Vmax= 572.0\n \n.MODEL D_DBD D Bv= 45.20 Ibv= 250.0u Rs= 1.000u Is= 764.4f\n+ N= 1.000 M= 434.2m VJ= 572.7m Fc= 500.0m Cjo= 883.0p Tt= 18.50n\n \n.MODEL D_DBD2 D Bv= 45.20 Ibv= 250.0u Rs= 1.000u Is= 764.4f\n+ N= 1.000 M= 434.2m VJ= 572.7m Fc= 500.0m Cjo= 883.0p Tt= 18.50n\n.ENDS BUK6Y24-40P\n \n********************************************************************************************************\n* - Limited warranty and liability -\n*\n* Information in this document is believed to be accurate and reliable. However,Nexperia does not give\n* any representations or warranties,expressed or implied,as to the accuracy or completeness of such\n* information and shall have no liability for the consequences of use of such information.\n* Nexperia takes no responsibility for the content in this document if provided by an information source\n* outside of Nexperia. In no event shall Nexperia be liable for any indirect,incidental,punitive,\n* special or consequential damages (including - without limitation - lost profits,lost savings,\n* business interruption,costs related to the removal or replacement of any products or rework charges)\n* whether or not such damages are based on tort (including negligence),warranty,breach of contract or\n* any other legal theory. Notwithstanding any damages that customer might incur for any reason whatsoever,\n* Nexperia's aggregate and cumulative liability towards customer for the products described herein shall\n* be limited in accordance with the Terms and conditions of commercial sale of Nexperia.\n*\n********************************************************************************************************
TEXT -456 -1176 Left 2 !.dc VGS 0.2 -1 -0.1
TEXT -456 -1112 Left 2 ;What is what?\nRg              Gate ohmic resistance\nRd              Drain ohmic resistance (this is NOT the RDSon, but the resistance of the bond wire)\nRs              Source ohmic resistance.\nRb              Body diode resistance.          \nRds            Drain-source shunt resistance\n \nVto             Zero-bias threshold voltage.\nKp              Transconductance coefficient\n \nCgdmax      Maximum gate to drain capacitance.\nCgdmin       Minimum gate to drain capacitance.\nCgs             Gate to source capacitance.\nCjo              Parasitic diode capacitance.\n \nIs                Parasitic diode saturation current.\nIBV              Current at Vds=BV\nBV               Vds breakdown voltage
TEXT -1120 -712 Left 2 ;IV Characteristics
TEXT -928 -1040 Left 2 ;S
TEXT -1008 -984 Left 2 ;G
TEXT -928 -928 Left 2 ;D
TEXT -1112 -624 Left 2 ;Vds = -2v\nVgs    Id\n-----------------\n-800mV  -78.213nA\n-900mV   -153.19nA\n \nSo, gm = delta Id/ delta Vgs = (-153.19 - -78.213)nA/(-900 - -800)v = 0.7497nS
