Version 4
SHEET 1 880 680
WIRE 192 48 16 48
WIRE 16 128 16 48
WIRE 192 192 192 128
WIRE 16 336 16 208
WIRE 192 336 192 272
FLAG 16 336 0
FLAG 192 336 0
SYMBOL voltage 16 112 R0
WINDOW 123 0 0 Left 0
WINDOW 39 0 0 Left 0
SYMATTR InstName V1
SYMATTR Value 2
SYMBOL res 176 32 R0
SYMATTR InstName R1
SYMATTR Value {upper}
SYMBOL res 176 176 R0
SYMATTR InstName R2
SYMATTR Value {lower}
TEXT -40 -32 Left 2 !.step param upper list 1k 10k 100k
TEXT -40 0 Left 2 !.step param lower 1k 10k 1k
TEXT -42 360 Left 2 !.tran 1
